REMARK  2 active torsions:
REMARK  status: ('A' for Active; 'I' for Inactive)
REMARK    1  A    between atoms: C_1  and  C_7 
REMARK    2  A    between atoms: C_6  and  C_7 
ROOT
HETATM    1  C   LIG     1       1.309  -0.385  -0.749  1.00  0.00     0.000 C 
HETATM    2  C   LIG     1       0.510   0.272   0.377  1.00  0.00     0.000 C 
HETATM    3  C   LIG     1       0.284  -0.886  -1.761  1.00  0.00     0.005 C 
HETATM    4  C   LIG     1      -0.960   0.142  -0.014  1.00  0.00     0.005 C 
HETATM    5  C   LIG     1      -0.955  -0.022  -1.532  1.00  0.00    -0.005 C 
ENDROOT
BRANCH   5   6
HETATM    6  C   LIG     1      -0.870   1.318  -2.260  1.00  0.00     0.117 C 
BRANCH   6   7
HETATM    7  C   LIG     1      -0.795   1.230  -3.785  1.00  0.00     0.172 C 
HETATM    8  O   LIG     1       0.205   0.634  -4.271  1.00  0.00    -0.648 OA
HETATM    9  O   LIG     1      -1.769   1.777  -4.380  1.00  0.00    -0.648 OA
ENDBRANCH   6   7
ENDBRANCH   5   6
TORSDOF 2
