REMARK  3 active torsions:
REMARK  status: ('A' for Active; 'I' for Inactive)
REMARK    1  A    between atoms: C_1  and  C_3 
REMARK    2  A    between atoms: C_2  and  C_5 
REMARK    3  A    between atoms: C_5  and  C_6 
ROOT
HETATM    1  C   LIG     1      -1.001  -0.747  -3.883  1.00  0.00     0.080 C 
HETATM    2  C   LIG     1      -0.008  -0.561  -3.002  1.00  0.00    -0.020 C 
ENDROOT
BRANCH   1   3
HETATM    3  C   LIG     1      -0.843  -0.392  -5.369  1.00  0.00     0.198 C 
HETATM    4  O   LIG     1       0.268   0.086  -5.730  1.00  0.00    -0.645 OA
HETATM    5  O   LIG     1      -1.874  -0.629  -6.066  1.00  0.00    -0.645 OA
ENDBRANCH   1   3
BRANCH   2   6
HETATM    6  C   LIG     1      -0.126  -0.892  -1.541  1.00  0.00     0.027 C 
BRANCH   6   7
HETATM    7  C   LIG     1       0.107   0.345  -0.672  1.00  0.00    -0.001 C 
HETATM    8  C   LIG     1      -0.038   0.021   0.806  1.00  0.00     0.005 C 
ENDBRANCH   6   7
ENDBRANCH   2   6
TORSDOF 3
