REMARK  2 active torsions:
REMARK  status: ('A' for Active; 'I' for Inactive)
REMARK    1  A    between atoms: C_2  and  C_4 
REMARK    2  A    between atoms: C_5  and  C_9 
ROOT
HETATM    1  C   LIG     1       0.224  -1.136  -4.280  1.00  0.00    -0.012 C 
HETATM    2  C   LIG     1       0.465   0.147  -4.586  1.00  0.00     0.015 C 
HETATM    3  C   LIG     1      -0.494  -1.552  -3.026  1.00  0.00     0.036 C 
HETATM    4  C   LIG     1       0.028   1.304  -3.740  1.00  0.00     0.046 C 
HETATM    5  C   LIG     1      -1.005   0.902  -2.679  1.00  0.00     0.014 C 
HETATM    6  C   LIG     1      -0.659  -0.425  -1.988  1.00  0.00     0.017 C 
ENDROOT
BRANCH   2   7
HETATM    7  C   LIG     1       1.183   0.427  -5.832  1.00  0.00     0.204 C 
HETATM    8  O   LIG     1       0.613   0.016  -6.881  1.00  0.00    -0.644 OA
HETATM    9  O   LIG     1       2.276   1.044  -5.693  1.00  0.00    -0.644 OA
ENDBRANCH   2   7
BRANCH   6  10
HETATM   10  C   LIG     1       0.557  -0.285  -1.117  1.00  0.00    -0.089 C 
HETATM   11  C   LIG     1       1.789  -0.554  -1.572  1.00  0.00     0.014 C 
HETATM   12  C   LIG     1       0.313   0.173   0.290  1.00  0.00     0.043 C 
ENDBRANCH   6  10
TORSDOF 2
