REMARK  4 active torsions:
REMARK  status: ('A' for Active; 'I' for Inactive)
REMARK    1  A    between atoms: C_2  and  C_4 
REMARK    2  A    between atoms: C_3  and  C_5 
REMARK    3  A    between atoms: C_4  and  C_6 
REMARK    4  A    between atoms: C_5  and  C_6 
ROOT
HETATM    1  C   LIG     1      -0.102  -0.682  -3.202  1.00  0.00     0.113 C 
ENDROOT
BRANCH   1   2
HETATM    2  C   LIG     1      -1.305   0.255  -3.354  1.00  0.00     0.172 C 
HETATM    3  O   LIG     1      -1.588   0.911  -2.310  1.00  0.00    -0.648 OA
HETATM    4  O   LIG     1      -1.859   0.277  -4.487  1.00  0.00    -0.648 OA
ENDBRANCH   1   2
BRANCH   1   5
HETATM    5  C   LIG     1       1.233  -0.026  -2.858  1.00  0.00     0.014 C 
BRANCH   5   6
HETATM    6  C   LIG     1       1.185   0.720  -1.521  1.00  0.00     0.027 C 
BRANCH   6   7
HETATM    7  C   LIG     1       0.839  -0.208  -0.394  1.00  0.00    -0.037 C 
HETATM    8  C   LIG     1      -0.242  -0.072   0.382  1.00  0.00     0.007 C 
ENDBRANCH   6   7
ENDBRANCH   5   6
ENDBRANCH   1   5
TORSDOF 4
