REMARK  5 active torsions:
REMARK  status: ('A' for Active; 'I' for Inactive)
REMARK    1  A    between atoms: C_1  and  C_7 
REMARK    2  A    between atoms: C_3  and  C_8 
REMARK    3  A    between atoms: C_7  and  C_9 
REMARK    4  A    between atoms: C_8  and  C_10 
REMARK    5  A    between atoms: C_9  and  C_10 
ROOT
HETATM    1  C   LIG     1      -0.866  -0.857  -4.344  1.00  0.00     0.008 C 
ENDROOT
BRANCH   1   2
HETATM    2  C   LIG     1       0.183  -1.224  -3.290  1.00  0.00     0.028 C 
BRANCH   2   3
HETATM    3  C   LIG     1      -0.302  -0.894  -1.906  1.00  0.00    -0.025 C 
HETATM    4  C   LIG     1       0.437  -0.529  -0.841  1.00  0.00    -0.091 C 
HETATM    5  C   LIG     1      -0.110  -0.211   0.521  1.00  0.00     0.042 C 
HETATM    6  C   LIG     1       1.935  -0.426  -0.951  1.00  0.00     0.042 C 
ENDBRANCH   2   3
ENDBRANCH   1   2
BRANCH   1   7
HETATM    7  C   LIG     1      -1.278   0.630  -4.306  1.00  0.00    -0.008 C 
HETATM    8  C   LIG     1      -1.979   1.057  -5.600  1.00  0.00     0.010 C 
BRANCH   7   9
HETATM    9  C   LIG     1      -0.048   1.523  -4.075  1.00  0.00     0.117 C 
BRANCH   9  10
HETATM   10  C   LIG     1       1.056   1.448  -5.138  1.00  0.00     0.172 C 
HETATM   11  O   LIG     1       2.010   2.258  -4.957  1.00  0.00    -0.648 OA
HETATM   12  O   LIG     1       0.880   0.613  -6.067  1.00  0.00    -0.648 OA
ENDBRANCH   9  10
ENDBRANCH   7   9
ENDBRANCH   1   7
TORSDOF 5
