REMARK  3 active torsions:
REMARK  status: ('A' for Active; 'I' for Inactive)
REMARK    1  A    between atoms: C_2  and  C_5 
REMARK    2  A    between atoms: C_3  and  C_6 
REMARK    3  A    between atoms: C_5  and  C_6 
ROOT
HETATM    1  C   LIG     1      -1.647   1.314  -4.031  1.00  0.00     0.021 C 
HETATM    2  C   LIG     1      -1.234   0.256  -3.010  1.00  0.00     0.086 C 
ENDROOT
BRANCH   2   3
HETATM    3  C   LIG     1      -0.314  -0.709  -3.784  1.00  0.00     0.176 C 
HETATM    4  O   LIG     1       0.538  -1.339  -3.097  1.00  0.00    -0.648 OA
HETATM    5  O   LIG     1      -0.525  -0.747  -5.030  1.00  0.00    -0.648 OA
ENDBRANCH   2   3
BRANCH   2   6
HETATM    6  C   LIG     1      -0.583   0.909  -1.786  1.00  0.00     0.041 C 
BRANCH   6   7
HETATM    7  C   LIG     1      -0.614   0.009  -0.584  1.00  0.00    -0.036 C 
HETATM    8  C   LIG     1       0.472  -0.360   0.105  1.00  0.00     0.007 C 
ENDBRANCH   6   7
ENDBRANCH   2   6
TORSDOF 3
