REMARK  3 active torsions:
REMARK  status: ('A' for Active; 'I' for Inactive)
REMARK    1  A    between atoms: C_1  and  C_4 
REMARK    2  A    between atoms: C_4  and  C_5 
REMARK    3  A    between atoms: C_5  and  C_6 
ROOT
HETATM    1  C   LIG     1      -0.413  -0.704  -3.640  1.00  0.00     0.113 C 
ENDROOT
BRANCH   1   2
HETATM    2  C   LIG     1      -1.343   0.398  -4.155  1.00  0.00     0.172 C 
HETATM    3  O   LIG     1      -1.425   0.512  -5.410  1.00  0.00    -0.648 OA
HETATM    4  O   LIG     1      -1.906   1.075  -3.248  1.00  0.00    -0.648 OA
ENDBRANCH   1   2
BRANCH   1   5
HETATM    5  C   LIG     1      -0.416  -0.917  -2.127  1.00  0.00     0.014 C 
BRANCH   5   6
HETATM    6  C   LIG     1      -0.050   0.330  -1.298  1.00  0.00    -0.022 C 
HETATM    7  C   LIG     1       1.349   0.856  -1.621  1.00  0.00     0.009 C 
HETATM    8  C   LIG     1      -0.146   0.003   0.195  1.00  0.00     0.009 C 
ENDBRANCH   5   6
ENDBRANCH   1   5
TORSDOF 3
