REMARK  3 active torsions:
REMARK  status: ('A' for Active; 'I' for Inactive)
REMARK    1  A    between atoms: C_2  and  C_6 
REMARK    2  A    between atoms: C_3  and  C_7 
REMARK    3  A    between atoms: C_6  and  C_7 
ROOT
HETATM    1  C   LIG     1      -0.248  -1.266  -3.939  1.00  0.00     0.026 C 
HETATM    2  C   LIG     1       1.841  -0.183  -3.098  1.00  0.00     0.026 C 
HETATM    3  C   LIG     1       0.347  -0.398  -2.818  1.00  0.00     0.044 C 
ENDROOT
BRANCH   3   4
HETATM    4  C   LIG     1      -0.467   0.928  -2.910  1.00  0.00     0.181 C 
HETATM    5  O   LIG     1       0.022   1.817  -3.666  1.00  0.00    -0.647 OA
HETATM    6  O   LIG     1      -1.520   0.979  -2.213  1.00  0.00    -0.647 OA
ENDBRANCH   3   4
BRANCH   3   7
HETATM    7  C   LIG     1       0.134  -1.109  -1.460  1.00  0.00     0.046 C 
BRANCH   7   8
HETATM    8  C   LIG     1       0.546  -0.292  -0.265  1.00  0.00    -0.036 C 
HETATM    9  C   LIG     1      -0.287   0.497   0.423  1.00  0.00     0.007 C 
ENDBRANCH   7   8
ENDBRANCH   3   7
TORSDOF 3
