REMARK  5 active torsions:
REMARK  status: ('A' for Active; 'I' for Inactive)
REMARK    1  A    between atoms: C1_1  and  C2_2 
REMARK    2  A    between atoms: C1_1  and  C3_3 
REMARK    3  A    between atoms: C2_2  and  C4_4 
REMARK    4  A    between atoms: C3_3  and  N5_5 
REMARK    5  A    between atoms: C4_4  and  N6_6 
ROOT
HETATM    1  C1  UNL     1       0.246   1.026  -0.302  1.00 20.00     0.029 C 
ENDROOT
BRANCH   1   2
HETATM    2  C2  UNL     1      -0.433   1.343  -1.635  1.00 20.00     0.029 C 
BRANCH   2   3
HETATM    3  C4  UNL     1      -0.023   0.346  -2.708  1.00 20.00     0.229 C 
BRANCH   3   4
HETATM    4  N6  UNL     1      -0.739   0.666  -3.967  1.00 20.00    -0.079 N 
HETATM    5  H18 UNL     1      -0.124   0.549  -4.780  1.00 20.00     0.274 HD
HETATM    6  H19 UNL     1      -1.075   1.635  -3.962  1.00 20.00     0.274 HD
HETATM    7  H20 UNL     1      -1.550   0.051  -4.095  1.00 20.00     0.274 HD
ENDBRANCH   3   4
ENDBRANCH   2   3
ENDBRANCH   1   2
BRANCH   1   8
HETATM    8  C3  UNL     1      -0.191   2.001   0.780  1.00 20.00     0.229 C 
BRANCH   8   9
HETATM    9  N5  UNL     1       0.525   1.683   2.039  1.00 20.00    -0.079 N 
HETATM   10  H15 UNL     1      -0.061   1.119   2.664  1.00 20.00     0.274 HD
HETATM   11  H16 UNL     1       0.786   2.540   2.540  1.00 20.00     0.274 HD
HETATM   12  H17 UNL     1       1.384   1.154   1.850  1.00 20.00     0.274 HD
ENDBRANCH   8   9
ENDBRANCH   1   8
TORSDOF 5
