REMARK  3 active torsions:
REMARK  status: ('A' for Active; 'I' for Inactive)
REMARK    1  A    between atoms: C9_9  and  C12_12 
REMARK    2  A    between atoms: C13_13  and  N15_15 
REMARK    3  A    between atoms: C14_14  and  N16_16 
ROOT
HETATM    1  C1  UNL     1       0.173   1.676  -1.587  1.00 20.00     0.044 C 
HETATM    2  C2  UNL     1       0.837   1.998   0.814  1.00 20.00     0.044 C 
HETATM    3  C3  UNL     1       2.168   0.463  -0.662  1.00 20.00     0.044 C 
HETATM    4  C4  UNL     1      -2.168  -0.463   0.662  1.00 20.00     0.044 C 
HETATM    5  C5  UNL     1      -0.837  -1.998  -0.814  1.00 20.00     0.044 C 
HETATM    6  C6  UNL     1      -0.173  -1.676   1.586  1.00 20.00     0.044 C 
HETATM    7  C7  UNL     1      -0.736   0.501  -1.185  1.00 20.00    -0.003 C 
HETATM    8  C8  UNL     1      -0.068   0.825   1.229  1.00 20.00    -0.003 C 
HETATM    9  C9  UNL     1       1.271  -0.718  -0.255  1.00 20.00    -0.003 C 
HETATM   10  C10 UNL     1      -1.271   0.718   0.255  1.00 20.00    -0.003 C 
HETATM   11  C11 UNL     1       0.068  -0.825  -1.229  1.00 20.00    -0.003 C 
HETATM   12  C12 UNL     1       0.736  -0.501   1.185  1.00 20.00    -0.003 C 
HETATM   13  C13 UNL     1       1.355   1.764  -0.611  1.00 20.00     0.125 C 
HETATM   14  C14 UNL     1      -1.355  -1.764   0.611  1.00 20.00     0.125 C 
ENDROOT
BRANCH  13  15
HETATM   15  N15 UNL     1       2.227   2.899  -1.005  1.00 20.00    -0.070 N 
HETATM   16  H35 UNL     1       3.139   2.839  -0.539  1.00 20.00     0.275 HD
HETATM   17  H36 UNL     1       1.799   3.794  -0.748  1.00 20.00     0.275 HD
HETATM   18  H37 UNL     1       2.388   2.903  -2.018  1.00 20.00     0.275 HD
ENDBRANCH  13  15
BRANCH  14  19
HETATM   19  N16 UNL     1      -2.227  -2.899   1.005  1.00 20.00    -0.070 N 
HETATM   20  H38 UNL     1      -2.633  -2.744   1.934  1.00 20.00     0.275 HD
HETATM   21  H39 UNL     1      -1.695  -3.775   1.034  1.00 20.00     0.275 HD
HETATM   22  H40 UNL     1      -2.997  -3.017   0.338  1.00 20.00     0.275 HD
ENDBRANCH  14  19
TORSDOF 3
