REMARK  2 active torsions:
REMARK  status: ('A' for Active; 'I' for Inactive)
REMARK    1  A    between atoms: C10_10  and  C12_12 
REMARK    2  A    between atoms: C12_12  and  N13_13 
ROOT
HETATM    1  C1  UNL     1       1.048   0.258   0.198  1.00 20.00     0.009 C 
HETATM    2  C2  UNL     1       0.448   1.185   2.449  1.00 20.00     0.009 C 
HETATM    3  C3  UNL     1       0.459   2.683   0.439  1.00 20.00     0.009 C 
HETATM    4  C4  UNL     1       2.813   0.508   1.962  1.00 20.00     0.016 C 
HETATM    5  C5  UNL     1       2.824   2.010  -0.053  1.00 20.00     0.016 C 
HETATM    6  C6  UNL     1       2.223   2.939   2.203  1.00 20.00     0.016 C 
HETATM    7  C7  UNL     1       1.334   0.171   1.706  1.00 20.00    -0.013 C 
HETATM    8  C8  UNL     1       1.345   1.677  -0.314  1.00 20.00    -0.013 C 
HETATM    9  C9  UNL     1       0.742   2.609   1.949  1.00 20.00    -0.013 C 
HETATM   10  C10 UNL     1       3.136   1.936   1.460  1.00 20.00    -0.020 C 
ENDROOT
BRANCH  10  11
HETATM   11  C12 UNL     1       4.609   2.268   1.716  1.00 20.00     0.078 C 
HETATM   12  C11 UNL     1       4.934   2.238   3.198  1.00 20.00     0.032 C 
BRANCH  11  13
HETATM   13  N13 UNL     1       4.892   3.619   1.182  1.00 20.00    -0.426 N 
HETATM   14  H33 UNL     1       4.418   3.885   0.356  1.00 20.00     0.150 HD
HETATM   15  H34 UNL     1       5.675   4.094   1.553  1.00 20.00     0.150 HD
ENDBRANCH  11  13
ENDBRANCH  10  11
TORSDOF 2
