REMARK  7 active torsions:
REMARK  status: ('A' for Active; 'I' for Inactive)
REMARK    1  A    between atoms: C7_7  and  C8_8 
REMARK    2  A    between atoms: C7_7  and  C9_9 
REMARK    3  A    between atoms: C8_8  and  C10_10 
REMARK    4  A    between atoms: C9_9  and  C11_11 
REMARK    5  A    between atoms: C10_10  and  C12_12 
REMARK    6  A    between atoms: C11_11  and  N13_13 
REMARK    7  A    between atoms: C12_12  and  N14_14 
ROOT
HETATM    1  C7  UNL     1       0.264  -0.925  -0.527  1.00 20.00     0.002 C 
ENDROOT
BRANCH   1   2
HETATM    2  C8  UNL     1       1.091  -1.822   0.396  1.00 20.00     0.002 C 
BRANCH   2   3
HETATM    3  C10 UNL     1       0.337  -2.136   1.689  1.00 20.00     0.028 C 
BRANCH   3   4
HETATM    4  C12 UNL     1       1.179  -2.999   2.616  1.00 20.00     0.236 C 
BRANCH   4   5
HETATM    5  N14 UNL     1       0.393  -3.314   3.834  1.00 20.00    -0.079 N 
HETATM    6  C4  UNL     1      -0.034  -2.028   4.556  1.00 20.00     0.271 C 
HETATM    7  C5  UNL     1      -0.874  -4.103   3.476  1.00 20.00     0.271 C 
HETATM    8  C6  UNL     1       1.219  -4.158   4.814  1.00 20.00     0.271 C 
ENDBRANCH   4   5
ENDBRANCH   3   4
ENDBRANCH   2   3
ENDBRANCH   1   2
BRANCH   1   9
HETATM    9  C9  UNL     1       1.031  -0.584  -1.806  1.00 20.00     0.028 C 
BRANCH   9  10
HETATM   10  C11 UNL     1       0.189   0.279  -2.734  1.00 20.00     0.236 C 
BRANCH  10  11
HETATM   11  N13 UNL     1       0.954   0.546  -3.976  1.00 20.00    -0.079 N 
HETATM   12  C1  UNL     1       2.280   1.252  -3.660  1.00 20.00     0.271 C 
HETATM   13  C2  UNL     1       1.275  -0.763  -4.711  1.00 20.00     0.271 C 
HETATM   14  C3  UNL     1       0.152   1.443  -4.929  1.00 20.00     0.271 C 
ENDBRANCH  10  11
ENDBRANCH   9  10
ENDBRANCH   1   9
TORSDOF 7
