REMARK  11 active torsions:
REMARK  status: ('A' for Active; 'I' for Inactive)
REMARK    1  A    between atoms: C1_1  and  C2_2 
REMARK    2  A    between atoms: C1_1  and  C3_3 
REMARK    3  A    between atoms: C2_2  and  C4_4 
REMARK    4  A    between atoms: C3_3  and  C5_5 
REMARK    5  A    between atoms: C4_4  and  C6_6 
REMARK    6  A    between atoms: C5_5  and  C7_7 
REMARK    7  A    between atoms: C6_6  and  C8_8 
REMARK    8  A    between atoms: C7_7  and  C9_9 
REMARK    9  A    between atoms: C8_8  and  C10_10 
REMARK   10  A    between atoms: C9_9  and  N11_11 
REMARK   11  A    between atoms: C10_10  and  N12_12 
ROOT
HETATM    1  C1  UNL     1       0.532  -0.295  -0.913  1.00 20.00     0.000 C 
ENDROOT
BRANCH   1   2
HETATM    2  C2  UNL     1       0.398  -1.813  -1.074  1.00 20.00     0.000 C 
BRANCH   2   3
HETATM    3  C4  UNL     1       0.985  -2.600   0.101  1.00 20.00     0.000 C 
BRANCH   3   4
HETATM    4  C6  UNL     1       0.797  -4.115  -0.034  1.00 20.00     0.002 C 
BRANCH   4   5
HETATM    5  C8  UNL     1       1.316  -4.898   1.177  1.00 20.00     0.027 C 
BRANCH   5   6
HETATM    6  C10 UNL     1       1.139  -6.406   1.041  1.00 20.00     0.229 C 
BRANCH   6   7
HETATM    7  N12 UNL     1      -0.288  -6.748   0.837  1.00 20.00    -0.079 N 
HETATM    8  H36 UNL     1      -0.493  -6.896  -0.158  1.00 20.00     0.274 HD
HETATM    9  H37 UNL     1      -0.899  -5.996   1.175  1.00 20.00     0.274 HD
HETATM   10  H38 UNL     1      -0.537  -7.607   1.341  1.00 20.00     0.274 HD
ENDBRANCH   6   7
ENDBRANCH   5   6
ENDBRANCH   4   5
ENDBRANCH   3   4
ENDBRANCH   2   3
ENDBRANCH   1   2
BRANCH   1  11
HETATM   11  C3  UNL     1      -0.032   0.493  -2.097  1.00 20.00     0.000 C 
BRANCH  11  12
HETATM   12  C5  UNL     1       0.107   2.002  -1.875  1.00 20.00     0.002 C 
BRANCH  12  13
HETATM   13  C7  UNL     1      -0.431   2.790  -3.073  1.00 20.00     0.027 C 
BRANCH  13  14
HETATM   14  C9  UNL     1      -0.308   4.300  -2.909  1.00 20.00     0.229 C 
BRANCH  14  15
HETATM   15  N11 UNL     1      -0.835   5.001  -4.103  1.00 20.00    -0.079 N 
HETATM   16  H33 UNL     1      -0.344   4.703  -4.953  1.00 20.00     0.274 HD
HETATM   17  H34 UNL     1      -0.720   6.017  -4.014  1.00 20.00     0.274 HD
HETATM   18  H35 UNL     1      -1.835   4.808  -4.233  1.00 20.00     0.274 HD
ENDBRANCH  14  15
ENDBRANCH  13  14
ENDBRANCH  12  13
ENDBRANCH  11  12
ENDBRANCH   1  11
TORSDOF 11
