REMARK  13 active torsions:
REMARK  status: ('A' for Active; 'I' for Inactive)
REMARK    1  A    between atoms: C1_1  and  C2_2 
REMARK    2  A    between atoms: C1_1  and  C3_3 
REMARK    3  A    between atoms: C2_2  and  C4_4 
REMARK    4  A    between atoms: C3_3  and  C5_5 
REMARK    5  A    between atoms: C4_4  and  C6_6 
REMARK    6  A    between atoms: C5_5  and  C7_7 
REMARK    7  A    between atoms: C6_6  and  C8_8 
REMARK    8  A    between atoms: C7_7  and  C9_9 
REMARK    9  A    between atoms: C8_8  and  C10_10 
REMARK   10  A    between atoms: C9_9  and  C11_11 
REMARK   11  A    between atoms: C10_10  and  C12_12 
REMARK   12  A    between atoms: C11_11  and  N13_13 
REMARK   13  A    between atoms: C12_12  and  N14_14 
ROOT
HETATM    1  C1  UNL     1       1.355  -0.851  -0.412  1.00 20.00     0.000 C 
ENDROOT
BRANCH   1   2
HETATM    2  C2  UNL     1       0.182  -0.193   0.317  1.00 20.00     0.000 C 
BRANCH   2   3
HETATM    3  C4  UNL     1       0.362  -0.267   1.835  1.00 20.00     0.000 C 
BRANCH   3   4
HETATM    4  C6  UNL     1      -0.793   0.420   2.566  1.00 20.00     0.000 C 
BRANCH   4   5
HETATM    5  C8  UNL     1      -0.630   0.317   4.085  1.00 20.00     0.002 C 
BRANCH   5   6
HETATM    6  C10 UNL     1      -1.803   0.979   4.814  1.00 20.00     0.027 C 
BRANCH   6   7
HETATM    7  C12 UNL     1      -1.697   0.896   6.332  1.00 20.00     0.229 C 
BRANCH   7   8
HETATM    8  N14 UNL     1      -1.707  -0.515   6.782  1.00 20.00    -0.079 N 
HETATM    9  H42 UNL     1      -2.272  -0.627   7.631  1.00 20.00     0.274 HD
HETATM   10  H43 UNL     1      -0.757  -0.842   6.991  1.00 20.00     0.274 HD
HETATM   11  H44 UNL     1      -2.100  -1.130   6.059  1.00 20.00     0.274 HD
ENDBRANCH   7   8
ENDBRANCH   6   7
ENDBRANCH   5   6
ENDBRANCH   4   5
ENDBRANCH   3   4
ENDBRANCH   2   3
ENDBRANCH   1   2
BRANCH   1  12
HETATM   12  C3  UNL     1       1.241  -0.778  -1.938  1.00 20.00     0.000 C 
BRANCH  12  13
HETATM   13  C5  UNL     1       2.377  -1.502  -2.665  1.00 20.00     0.000 C 
BRANCH  13  14
HETATM   14  C7  UNL     1       2.230  -1.479  -4.191  1.00 20.00     0.002 C 
BRANCH  14  15
HETATM   15  C9  UNL     1       3.380  -2.182  -4.919  1.00 20.00     0.027 C 
BRANCH  15  16
HETATM   16  C11 UNL     1       3.240  -2.151  -6.437  1.00 20.00     0.229 C 
BRANCH  16  17
HETATM   17  N13 UNL     1       3.258  -0.756  -6.935  1.00 20.00    -0.079 N 
HETATM   18  H39 UNL     1       3.564  -0.106  -6.202  1.00 20.00     0.274 HD
HETATM   19  H40 UNL     1       2.324  -0.464  -7.245  1.00 20.00     0.274 HD
HETATM   20  H41 UNL     1       3.898  -0.656  -7.731  1.00 20.00     0.274 HD
ENDBRANCH  16  17
ENDBRANCH  15  16
ENDBRANCH  14  15
ENDBRANCH  13  14
ENDBRANCH  12  13
ENDBRANCH   1  12
TORSDOF 13
