REMARK  1 active torsions:
REMARK  status: ('A' for Active; 'I' for Inactive)
REMARK    1  A    between atoms: C9_9  and  C10_10 
ROOT
HETATM    1  C1  UNL     1       2.034  -2.522   1.835  1.00 20.00     0.033 C 
HETATM    2  C2  UNL     1       0.591  -0.492   2.208  1.00 20.00     0.033 C 
HETATM    3  C5  UNL     1       2.681  -2.313   3.199  1.00 20.00     0.237 C 
HETATM    4  C6  UNL     1       1.237  -0.282   3.572  1.00 20.00     0.237 C 
HETATM    5  C9  UNL     1       0.610  -1.963   1.785  1.00 20.00    -0.007 C 
HETATM    6  C11 UNL     1       3.616  -0.006   2.766  1.00 20.00     0.272 C 
HETATM    7  C12 UNL     1       3.157  -0.755   5.071  1.00 20.00     0.272 C 
HETATM    8  N15 UNL     1       2.662  -0.841   3.621  1.00 20.00    -0.075 N 
ENDROOT
BRANCH   5   9
HETATM    9  C10 UNL     1       0.009  -2.135   0.392  1.00 20.00    -0.007 C 
HETATM   10  C3  UNL     1      -0.009  -3.610  -0.014  1.00 20.00     0.033 C 
HETATM   11  C7  UNL     1      -0.657  -3.818  -1.378  1.00 20.00     0.237 C 
HETATM   12  N16 UNL     1      -2.067  -3.224  -1.438  1.00 20.00    -0.075 N 
HETATM   13  C8  UNL     1      -2.048  -1.747  -1.033  1.00 20.00     0.237 C 
HETATM   14  C13 UNL     1      -3.044  -4.024  -0.578  1.00 20.00     0.272 C 
HETATM   15  C14 UNL     1      -2.559  -3.313  -2.889  1.00 20.00     0.272 C 
HETATM   16  C4  UNL     1      -1.400  -1.539   0.331  1.00 20.00     0.033 C 
ENDBRANCH   5   9
TORSDOF 1
