REMARK  7 active torsions:
REMARK  status: ('A' for Active; 'I' for Inactive)
REMARK    1  A    between atoms: C1_1  and  C2_2 
REMARK    2  A    between atoms: C1_1  and  C3_3 
REMARK    3  A    between atoms: C2_2  and  C4_4 
REMARK    4  A    between atoms: C3_3  and  C5_5 
REMARK    5  A    between atoms: C4_4  and  C6_6 
REMARK    6  A    between atoms: C5_5  and  N7_7 
REMARK    7  A    between atoms: C6_6  and  N8_8 
ROOT
HETATM    1  C1  UNL     1       0.264  -0.925  -0.527  1.00 20.00     0.002 C 
ENDROOT
BRANCH   1   2
HETATM    2  C2  UNL     1       1.091  -1.822   0.396  1.00 20.00     0.002 C 
BRANCH   2   3
HETATM    3  C4  UNL     1       0.337  -2.136   1.689  1.00 20.00     0.027 C 
BRANCH   3   4
HETATM    4  C6  UNL     1       1.179  -2.999   2.616  1.00 20.00     0.229 C 
BRANCH   4   5
HETATM    5  N8  UNL     1       0.393  -3.314   3.834  1.00 20.00    -0.079 N 
HETATM    6  H24 UNL     1      -0.487  -3.782   3.592  1.00 20.00     0.274 HD
HETATM    7  H25 UNL     1       0.164  -2.459   4.354  1.00 20.00     0.274 HD
HETATM    8  H26 UNL     1       0.919  -3.933   4.460  1.00 20.00     0.274 HD
ENDBRANCH   4   5
ENDBRANCH   3   4
ENDBRANCH   2   3
ENDBRANCH   1   2
BRANCH   1   9
HETATM    9  C3  UNL     1       1.031  -0.584  -1.806  1.00 20.00     0.027 C 
BRANCH   9  10
HETATM   10  C5  UNL     1       0.189   0.279  -2.734  1.00 20.00     0.229 C 
BRANCH  10  11
HETATM   11  N7  UNL     1       0.954   0.546  -3.976  1.00 20.00    -0.079 N 
HETATM   12  H21 UNL     1       1.907   0.172  -3.908  1.00 20.00     0.274 HD
HETATM   13  H22 UNL     1       1.023   1.554  -4.155  1.00 20.00     0.274 HD
HETATM   14  H23 UNL     1       0.501   0.111  -4.787  1.00 20.00     0.274 HD
ENDBRANCH  10  11
ENDBRANCH   9  10
ENDBRANCH   1   9
TORSDOF 7
