REMARK  9 active torsions:
REMARK  status: ('A' for Active; 'I' for Inactive)
REMARK    1  A    between atoms: C1_1  and  C2_2 
REMARK    2  A    between atoms: C1_1  and  C3_3 
REMARK    3  A    between atoms: C2_2  and  C4_4 
REMARK    4  A    between atoms: C3_3  and  C5_5 
REMARK    5  A    between atoms: C4_4  and  C6_6 
REMARK    6  A    between atoms: C5_5  and  C7_7 
REMARK    7  A    between atoms: C6_6  and  C8_8 
REMARK    8  A    between atoms: C7_7  and  N9_9 
REMARK    9  A    between atoms: C8_8  and  N10_10 
ROOT
HETATM    1  C1  UNL     1       0.942   0.553  -0.095  1.00 20.00     0.000 C 
ENDROOT
BRANCH   1   2
HETATM    2  C2  UNL     1       1.054   1.135  -1.506  1.00 20.00     0.000 C 
BRANCH   2   3
HETATM    3  C4  UNL     1       0.963   0.039  -2.570  1.00 20.00     0.002 C 
BRANCH   3   4
HETATM    4  C6  UNL     1       1.034   0.628  -3.981  1.00 20.00     0.027 C 
BRANCH   4   5
HETATM    5  C8  UNL     1       0.873  -0.413  -5.082  1.00 20.00     0.229 C 
BRANCH   5   6
HETATM    6  N10 UNL     1       1.967  -1.410  -5.023  1.00 20.00    -0.079 N 
HETATM    7  H30 UNL     1       1.891  -1.993  -4.181  1.00 20.00     0.274 HD
HETATM    8  H31 UNL     1       2.884  -0.950  -5.004  1.00 20.00     0.274 HD
HETATM    9  H32 UNL     1       1.944  -2.032  -5.839  1.00 20.00     0.274 HD
ENDBRANCH   5   6
ENDBRANCH   4   5
ENDBRANCH   3   4
ENDBRANCH   2   3
ENDBRANCH   1   2
BRANCH   1  10
HETATM   10  C3  UNL     1       1.000   1.655   0.965  1.00 20.00     0.002 C 
BRANCH  10  11
HETATM   11  C5  UNL     1       0.906   1.123   2.398  1.00 20.00     0.027 C 
BRANCH  11  12
HETATM   12  C7  UNL     1       0.890   2.229   3.444  1.00 20.00     0.229 C 
BRANCH  12  13
HETATM   13  N9  UNL     1       0.747   1.618   4.789  1.00 20.00    -0.079 N 
HETATM   14  H27 UNL     1       1.515   0.965   4.979  1.00 20.00     0.274 HD
HETATM   15  H28 UNL     1      -0.135   1.100   4.864  1.00 20.00     0.274 HD
HETATM   16  H29 UNL     1       0.755   2.337   5.521  1.00 20.00     0.274 HD
ENDBRANCH  12  13
ENDBRANCH  11  12
ENDBRANCH  10  11
ENDBRANCH   1  10
TORSDOF 9
