REMARK  8 active torsions:
REMARK  status: ('A' for Active; 'I' for Inactive)
REMARK    1  A    between atoms: C_9  and  C_20 
REMARK    2  A    between atoms: C_11  and  C_20 
REMARK    3  A    between atoms: C_12  and  O_24 
REMARK    4  A    between atoms: C_18  and  C_19 
REMARK    5  A    between atoms: C_18  and  C_20 
REMARK    6  A    between atoms: C_19  and  N_23 
REMARK    7  A    between atoms: C_21  and  N_23 
REMARK    8  A    between atoms: C_22  and  N_23 
ROOT
HETATM    1  C   LIG     1       8.618  38.848  28.262  1.00  0.00     0.056 C 
ENDROOT
BRANCH   1   2
HETATM    2  C   LIG     1       7.839  38.185  27.130  1.00  0.00    -0.050 A 
HETATM    3  C   LIG     1       6.872  37.222  27.419  1.00  0.00     0.008 A 
HETATM    4  C   LIG     1       6.160  36.616  26.383  1.00  0.00     0.001 A 
HETATM    5  C   LIG     1       6.416  36.973  25.059  1.00  0.00     0.000 A 
HETATM    6  C   LIG     1       7.383  37.936  24.771  1.00  0.00     0.001 A 
HETATM    7  C   LIG     1       8.095  38.542  25.806  1.00  0.00     0.008 A 
ENDBRANCH   1   2
BRANCH   1   8
HETATM    8  C   LIG     1       8.970  37.844  29.353  1.00  0.00    -0.016 A 
HETATM    9  C   LIG     1       8.127  37.711  30.456  1.00  0.00     0.017 A 
HETATM   10  C   LIG     1       8.434  36.795  31.462  1.00  0.00    -0.061 A 
HETATM   11  C   LIG     1       9.585  36.012  31.365  1.00  0.00     0.009 A 
HETATM   12  C   LIG     1       7.533  36.652  32.642  1.00  0.00     0.048 C 
HETATM   13  C   LIG     1      10.427  36.145  30.262  1.00  0.00     0.037 A 
HETATM   14  C   LIG     1      10.120  37.060  29.256  1.00  0.00     0.072 A 
BRANCH  14  15
HETATM   15  O   LIG     1      10.955  37.178  28.185  1.00  0.00    -0.360 OA
HETATM   16  H   LIG     1      11.703  36.566  28.275  1.00  0.00     0.217 HD
ENDBRANCH  14  15
ENDBRANCH   1   8
BRANCH   1  17
HETATM   17  C   LIG     1       7.938  40.134  28.799  1.00  0.00     0.042 C 
BRANCH  17  18
HETATM   18  C   LIG     1       8.767  40.820  29.881  1.00  0.00     0.237 C 
BRANCH  18  19
HETATM   19  N   LIG     1      10.105  41.147  29.330  1.00  0.00    -0.064 N 
HETATM   20  H   LIG     1      10.408  40.352  28.741  1.00  0.00     0.280 HD
BRANCH  19  21
HETATM   21  C   LIG     1      10.080  42.352  28.422  1.00  0.00     0.180 C 
HETATM   22  C   LIG     1       8.793  42.320  27.614  1.00  0.00     0.039 C 
HETATM   23  C   LIG     1      11.316  42.316  27.538  1.00  0.00     0.039 C 
ENDBRANCH  19  21
BRANCH  19  24
HETATM   24  C   LIG     1      11.155  41.295  30.403  1.00  0.00     0.180 C 
HETATM   25  C   LIG     1      11.574  39.907  30.862  1.00  0.00     0.039 C 
HETATM   26  C   LIG     1      10.573  42.124  31.536  1.00  0.00     0.039 C 
ENDBRANCH  19  24
ENDBRANCH  18  19
ENDBRANCH  17  18
ENDBRANCH   1  17
TORSDOF 8
