REMARK  2 active torsions:
REMARK  status: ('A' for Active; 'I' for Inactive)
REMARK    1  A    between atoms: C_9  and  N_11 
REMARK    2  A    between atoms: C_10  and  O_12 
ROOT
HETATM    1  C   LIG     1       8.599  38.965  29.665  1.00  0.00     0.009 C 
HETATM    2  C   LIG     1      11.074  38.565  29.795  1.00  0.00     0.043 C 
HETATM    3  C   LIG     1       9.540  37.553  31.515  1.00  0.00     0.043 C 
HETATM    4  C   LIG     1       9.723  37.498  27.970  1.00  0.00     0.042 C 
HETATM    5  C   LIG     1       8.193  36.490  29.685  1.00  0.00     0.042 C 
HETATM    6  C   LIG     1      10.670  36.083  29.816  1.00  0.00     0.076 C 
HETATM    7  C   LIG     1       9.881  38.758  28.839  1.00  0.00    -0.009 C 
HETATM    8  C   LIG     1       8.342  37.743  30.566  1.00  0.00    -0.009 C 
HETATM    9  C   LIG     1      10.820  37.339  30.689  1.00  0.00     0.127 C 
HETATM   10  C   LIG     1       9.474  36.268  28.861  1.00  0.00     0.061 C 
ENDROOT
BRANCH   9  11
HETATM   11  N   LIG     1      11.971  37.159  31.609  1.00  0.00    -0.070 N 
HETATM   12  H   LIG     1      11.702  36.602  32.426  1.00  0.00     0.275 HD
HETATM   13  H   LIG     1      12.317  38.064  31.942  1.00  0.00     0.275 HD
HETATM   14  H   LIG     1      12.744  36.678  31.138  1.00  0.00     0.275 HD
ENDBRANCH   9  11
BRANCH  10  15
HETATM   15  O   LIG     1       9.329  35.120  28.037  1.00  0.00    -0.390 OA
HETATM   16  H   LIG     1       9.174  34.366  28.630  1.00  0.00     0.210 HD
ENDBRANCH  10  15
TORSDOF 2
