REMARK  1 active torsions:
REMARK  status: ('A' for Active; 'I' for Inactive)
REMARK    1  A    between atoms: C_19  and  N_20 
ROOT
HETATM    1  C   LIG     1      10.711  41.622  31.134  1.00  0.00     0.002 A 
HETATM    2  C   LIG     1      10.079  41.403  29.912  1.00  0.00     0.017 A 
HETATM    3  C   LIG     1      10.958  40.555  31.996  1.00  0.00     0.007 A 
HETATM    4  C   LIG     1       9.689  40.109  29.551  1.00  0.00     0.039 A 
HETATM    5  C   LIG     1      10.586  39.250  31.642  1.00  0.00    -0.050 A 
HETATM    6  C   LIG     1       9.939  39.026  30.412  1.00  0.00    -0.030 A 
HETATM    7  C   LIG     1       9.012  39.890  28.243  1.00  0.00     0.254 C 
HETATM    8  C   LIG     1      10.824  38.131  32.626  1.00  0.00     0.039 C 
HETATM    9  C   LIG     1      10.686  36.738  32.017  1.00  0.00     0.005 C 
HETATM   10  C   LIG     1       9.441  36.654  31.141  1.00  0.00     0.011 C 
HETATM   11  C   LIG     1       8.271  37.694  29.163  1.00  0.00     0.136 C 
HETATM   12  C   LIG     1       9.566  37.632  29.968  1.00  0.00     0.038 C 
HETATM   13  N   LIG     1       8.384  38.653  28.067  1.00  0.00    -0.341 N 
HETATM   14  O   LIG     1       9.038  40.786  27.402  1.00  0.00    -0.267 OA
ENDROOT
BRANCH  13  15
HETATM   15  C   LIG     1       7.642  38.364  26.851  1.00  0.00     0.117 C 
HETATM   16  C   LIG     1       6.458  37.428  27.128  1.00  0.00     0.260 C 
HETATM   17  N   LIG     1       6.548  36.250  26.176  1.00  0.00    -0.069 N 
HETATM   18  C   LIG     1       7.809  35.452  26.436  1.00  0.00     0.235 C 
HETATM   19  C   LIG     1       6.497  36.716  24.736  1.00  0.00     0.235 C 
HETATM   20  H   LIG     1       5.739  35.637  26.346  1.00  0.00     0.280 HD
HETATM   21  C   LIG     1       9.013  36.358  26.178  1.00  0.00     0.034 C 
HETATM   22  C   LIG     1       8.550  37.765  25.754  1.00  0.00     0.013 C 
HETATM   23  C   LIG     1       7.707  37.615  24.475  1.00  0.00     0.034 C 
ENDBRANCH  13  15
TORSDOF 1
