REMARK  1 active torsions:
REMARK  status: ('A' for Active; 'I' for Inactive)
REMARK    1  A    between atoms: C_5  and  N_11 
ROOT
HETATM    1  C   LIG     1       7.622  38.988  29.939  1.00  0.00     0.006 C 
HETATM    2  C   LIG     1       8.549  40.110  30.437  1.00  0.00     0.012 C 
HETATM    3  C   LIG     1       8.998  37.276  31.087  1.00  0.00     0.039 C 
HETATM    4  C   LIG     1       8.599  37.817  29.691  1.00  0.00    -0.004 C 
HETATM    5  C   LIG     1       9.971  38.353  31.594  1.00  0.00     0.192 C 
HETATM    6  C   LIG     1       9.943  39.423  30.462  1.00  0.00    -0.009 C 
HETATM    7  C   LIG     1       9.887  38.522  29.184  1.00  0.00    -0.035 C 
HETATM    8  C   LIG     1      11.086  40.419  30.539  1.00  0.00     0.018 C 
HETATM    9  C   LIG     1      11.085  37.572  28.981  1.00  0.00     0.016 C 
HETATM   10  C   LIG     1       9.710  39.267  27.845  1.00  0.00     0.016 C 
ENDROOT
BRANCH   5  11
HETATM   11  N   LIG     1       9.551  38.868  32.914  1.00  0.00    -0.074 N 
HETATM   12  H   LIG     1       8.803  38.291  33.319  1.00  0.00     0.274 HD
HETATM   13  H   LIG     1       9.197  39.831  32.842  1.00  0.00     0.274 HD
HETATM   14  H   LIG     1      10.334  38.874  33.578  1.00  0.00     0.274 HD
ENDBRANCH   5  11
TORSDOF 1
