REMARK  1 active torsions:
REMARK  status: ('A' for Active; 'I' for Inactive)
REMARK    1  A    between atoms: C_7  and  N_8 
ROOT
HETATM    1  C   LIG     1      10.606  37.579  28.961  1.00  0.00     0.000 C 
HETATM    2  C   LIG     1      10.512  36.293  29.780  1.00  0.00     0.000 C 
HETATM    3  C   LIG     1       9.392  37.880  28.082  1.00  0.00     0.002 C 
HETATM    4  C   LIG     1       9.469  36.272  30.909  1.00  0.00     0.002 C 
HETATM    5  C   LIG     1       8.031  37.474  28.643  1.00  0.00     0.033 C 
HETATM    6  C   LIG     1       8.726  37.584  31.154  1.00  0.00     0.033 C 
HETATM    7  C   LIG     1       7.712  37.943  30.063  1.00  0.00     0.183 C 
ENDROOT
BRANCH   7   8
HETATM    8  N   LIG     1       7.532  39.424  30.063  1.00  0.00    -0.075 N 
HETATM    9  H   LIG     1       6.731  39.683  30.640  1.00  0.00     0.274 HD
HETATM   10  H   LIG     1       7.373  39.761  29.112  1.00  0.00     0.274 HD
HETATM   11  H   LIG     1       8.365  39.882  30.436  1.00  0.00     0.274 HD
ENDBRANCH   7   8
TORSDOF 1
