REMARK  1 active torsions:
REMARK  status: ('A' for Active; 'I' for Inactive)
REMARK    1  A    between atoms: C_8  and  N_9 
ROOT
HETATM    1  C   LIG     1       8.850  38.083  30.714  1.00  0.00     0.000 C 
HETATM    2  C   LIG     1       7.840  38.778  29.805  1.00  0.00     0.000 C 
HETATM    3  C   LIG     1       9.058  36.606  30.392  1.00  0.00     0.000 C 
HETATM    4  C   LIG     1       7.939  38.498  28.305  1.00  0.00     0.002 C 
HETATM    5  C   LIG     1      10.438  36.265  29.833  1.00  0.00     0.002 C 
HETATM    6  C   LIG     1       9.304  38.763  27.670  1.00  0.00     0.033 C 
HETATM    7  C   LIG     1      11.073  37.224  28.822  1.00  0.00     0.033 C 
HETATM    8  C   LIG     1      10.304  37.602  27.555  1.00  0.00     0.183 C 
ENDROOT
BRANCH   8   9
HETATM    9  N   LIG     1       9.679  36.407  26.937  1.00  0.00    -0.075 N 
HETATM   10  H   LIG     1       8.861  36.113  27.474  1.00  0.00     0.274 HD
HETATM   11  H   LIG     1      10.344  35.630  26.910  1.00  0.00     0.274 HD
HETATM   12  H   LIG     1       9.383  36.613  25.981  1.00  0.00     0.274 HD
ENDBRANCH   8   9
TORSDOF 1
