REMARK  1 active torsions:
REMARK  status: ('A' for Active; 'I' for Inactive)
REMARK    1  A    between atoms: C_12  and  N_13 
ROOT
HETATM    1  C   LIG     1       7.595  38.810  27.558  1.00  0.00     0.000 C 
HETATM    2  C   LIG     1       8.262  40.079  27.022  1.00  0.00     0.000 C 
HETATM    3  C   LIG     1       7.501  38.767  29.085  1.00  0.00     0.000 C 
HETATM    4  C   LIG     1       9.684  40.401  27.517  1.00  0.00     0.000 C 
HETATM    5  C   LIG     1       7.212  37.354  29.602  1.00  0.00     0.000 C 
HETATM    6  C   LIG     1      10.773  39.365  27.203  1.00  0.00     0.000 C 
HETATM    7  C   LIG     1       7.541  37.156  31.090  1.00  0.00     0.000 C 
HETATM    8  C   LIG     1      10.907  38.179  28.168  1.00  0.00     0.002 C 
HETATM    9  C   LIG     1       8.984  37.487  31.508  1.00  0.00     0.002 C 
HETATM   10  C   LIG     1      11.346  38.562  29.588  1.00  0.00     0.033 C 
HETATM   11  C   LIG     1      10.059  36.644  30.804  1.00  0.00     0.033 C 
HETATM   12  C   LIG     1      11.400  37.357  30.546  1.00  0.00     0.183 C 
ENDROOT
BRANCH  12  13
HETATM   13  N   LIG     1      11.958  37.826  31.849  1.00  0.00    -0.075 N 
HETATM   14  H   LIG     1      11.658  38.784  32.047  1.00  0.00     0.274 HD
HETATM   15  H   LIG     1      12.981  37.808  31.830  1.00  0.00     0.274 HD
HETATM   16  H   LIG     1      11.640  37.226  32.615  1.00  0.00     0.274 HD
ENDBRANCH  12  13
TORSDOF 1
