REMARK  1 active torsions:
REMARK  status: ('A' for Active; 'I' for Inactive)
REMARK    1  A    between atoms: C_9  and  N_10 
ROOT
HETATM    1  C   LIG     1       9.790  37.864  28.908  1.00  0.00     0.009 C 
HETATM    2  C   LIG     1       7.730  38.883  29.956  1.00  0.00     0.011 C 
HETATM    3  C   LIG     1       8.288  36.526  30.436  1.00  0.00     0.011 C 
HETATM    4  C   LIG     1       9.805  39.553  30.789  1.00  0.00     0.043 C 
HETATM    5  C   LIG     1      10.366  37.179  31.273  1.00  0.00     0.043 C 
HETATM    6  C   LIG     1       9.150  39.175  29.457  1.00  0.00    -0.011 C 
HETATM    7  C   LIG     1       9.732  36.714  29.958  1.00  0.00    -0.011 C 
HETATM    8  C   LIG     1       8.016  37.890  31.095  1.00  0.00     0.022 C 
HETATM    9  C   LIG     1       9.420  38.331  31.629  1.00  0.00     0.128 C 
ENDROOT
BRANCH   9  10
HETATM   10  N   LIG     1       9.427  38.624  33.061  1.00  0.00    -0.070 N 
HETATM   11  H   LIG     1      10.230  38.187  33.543  1.00  0.00     0.275 HD
HETATM   12  H   LIG     1       8.574  38.281  33.532  1.00  0.00     0.275 HD
HETATM   13  H   LIG     1       9.484  39.639  33.249  1.00  0.00     0.275 HD
ENDBRANCH   9  10
TORSDOF 1
