REMARK  3 active torsions:
REMARK  status: ('A' for Active; 'I' for Inactive)
REMARK    1  A    between atoms: C6_6  and  C9_9 
REMARK    2  A    between atoms: C9_9  and  C10_10 
REMARK    3  A    between atoms: C10_10  and  N1_11 
ROOT
HETATM    1  C9  UNL     1       0.774  -1.177  -2.404  1.00 20.00     0.071 C 
ENDROOT
BRANCH   1   2
HETATM    2  C6  UNL     1       1.465  -1.355  -3.727  1.00 20.00    -0.056 A 
HETATM    3  C4  UNL     1       1.382  -0.357  -4.698  1.00 20.00     0.007 A 
HETATM    4  C2  UNL     1       2.023  -0.523  -5.925  1.00 20.00     0.001 A 
HETATM    5  C1  UNL     1       2.749  -1.687  -6.181  1.00 20.00     0.000 A 
HETATM    6  C3  UNL     1       2.832  -2.684  -5.210  1.00 20.00     0.001 A 
HETATM    7  C5  UNL     1       2.190  -2.518  -3.983  1.00 20.00     0.007 A 
ENDBRANCH   1   2
BRANCH   1   8
HETATM    8  C10 UNL     1       1.645  -0.498  -1.338  1.00 20.00     0.185 C 
HETATM    9  C7  UNL     1       2.864  -1.342  -0.988  1.00 20.00     0.040 C 
BRANCH   8  10
HETATM   10  N1  UNL     1       0.849  -0.307  -0.091  1.00 20.00    -0.075 N 
HETATM   11  C8  UNL     1      -0.353   0.547  -0.264  1.00 20.00     0.267 C 
HETATM   12  H15 UNL     1       1.456   0.101   0.631  1.00 20.00     0.277 HD
HETATM   13  H16 UNL     1       0.564  -1.228   0.265  1.00 20.00     0.277 HD
ENDBRANCH   8  10
ENDBRANCH   1   8
TORSDOF 3
