REMARK  6 active torsions:
REMARK  status: ('A' for Active; 'I' for Inactive)
REMARK    1  A    between atoms: C11_11  and  C20_20 
REMARK    2  A    between atoms: C12_12  and  N1_23 
REMARK    3  A    between atoms: C13_13  and  C21_21 
REMARK       I    between atoms: C13_13  and  N1_23 
REMARK    4  A    between atoms: C18_18  and  N1_23 
REMARK    5  A    between atoms: C20_20  and  C22_22 
REMARK    6  A    between atoms: C22_22  and  N2_24 
ROOT
HETATM    1  C14 UNL     1       2.249   0.216  -2.635  1.00 20.00     0.053 C 
HETATM    2  C15 UNL     1       0.944   0.294  -0.477  1.00 20.00     0.053 C 
HETATM    3  C16 UNL     1       2.349   1.735  -2.620  1.00 20.00     0.237 C 
HETATM    4  C17 UNL     1       1.052   1.812  -0.475  1.00 20.00     0.237 C 
HETATM    5  C18 UNL     1       1.006  -0.279  -1.894  1.00 20.00     0.096 C 
HETATM    6  N2  UNL     1       2.289   2.266  -1.210  1.00 20.00    -0.071 N 
HETATM    7  H29 UNL     1       2.188   3.318  -1.308  1.00 20.00     0.279 HD
ENDROOT
BRANCH   5   8
HETATM    8  N1  UNL     1       0.968  -1.722  -1.865  1.00 20.00    -0.313 N 
HETATM    9  C13 UNL     1       1.971  -2.512  -1.230  1.00 20.00     0.224 C 
HETATM   10  O1  UNL     1       2.966  -2.077  -0.644  1.00 20.00    -0.273 OA
BRANCH   8  11
HETATM   11  C12 UNL     1      -0.147  -2.404  -2.515  1.00 20.00     0.037 A 
HETATM   12  C9  UNL     1      -1.305  -2.692  -1.792  1.00 20.00     0.030 A 
HETATM   13  C5  UNL     1      -2.371  -3.343  -2.413  1.00 20.00     0.002 A 
HETATM   14  C2  UNL     1      -2.279  -3.706  -3.757  1.00 20.00     0.000 A 
HETATM   15  C6  UNL     1      -1.121  -3.417  -4.480  1.00 20.00     0.002 A 
HETATM   16  C10 UNL     1      -0.056  -2.766  -3.859  1.00 20.00     0.030 A 
ENDBRANCH   8  11
BRANCH   9  17
HETATM   17  C21 UNL     1       1.777  -4.021  -1.349  1.00 20.00     0.099 C 
HETATM   18  C19 UNL     1       2.866  -4.813  -0.642  1.00 20.00     0.014 C 
ENDBRANCH   9  17
ENDBRANCH   5   8
BRANCH   6  19
HETATM   19  C22 UNL     1       3.562   2.067  -0.432  1.00 20.00     0.239 C 
BRANCH  19  20
HETATM   20  C20 UNL     1       4.586   3.133  -0.809  1.00 20.00     0.066 C 
BRANCH  20  21
HETATM   21  C11 UNL     1       5.869   3.043  -0.033  1.00 20.00    -0.057 A 
HETATM   22  C7  UNL     1       6.008   3.737   1.168  1.00 20.00     0.007 A 
HETATM   23  C3  UNL     1       7.200   3.654   1.888  1.00 20.00     0.001 A 
HETATM   24  C1  UNL     1       8.252   2.875   1.407  1.00 20.00     0.000 A 
HETATM   25  C4  UNL     1       8.113   2.181   0.205  1.00 20.00     0.001 A 
HETATM   26  C8  UNL     1       6.921   2.265  -0.515  1.00 20.00     0.007 A 
ENDBRANCH  20  21
ENDBRANCH  19  20
ENDBRANCH   6  19
TORSDOF 6
