REMARK  1 active torsions:
REMARK  status: ('A' for Active; 'I' for Inactive)
REMARK    1  A    between atoms: C6_6  and  O2_20 
ROOT
HETATM    1  C1  UNL     1      -0.168  -0.793   0.723  1.00 20.00     0.201 A 
HETATM    2  C2  UNL     1      -0.231  -0.476   2.095  1.00 20.00     0.050 A 
HETATM    3  C3  UNL     1      -0.355  -2.110   0.297  1.00 20.00    -0.066 A 
HETATM    4  C4  UNL     1      -0.562  -3.066   1.274  1.00 20.00    -0.010 A 
HETATM    5  C5  UNL     1      -0.706  -2.748   2.606  1.00 20.00     0.084 A 
HETATM    6  C6  UNL     1      -0.518  -1.458   3.052  1.00 20.00    -0.011 A 
HETATM    7  C7  UNL     1      -2.959  -4.219  -0.152  1.00 20.00     0.017 C 
HETATM    8  C8  UNL     1      -3.637  -4.281   1.003  1.00 20.00     0.040 C 
HETATM    9  C9  UNL     1      -0.458  -2.511  -1.150  1.00 20.00     0.055 C 
HETATM   10  C10 UNL     1       0.599  -5.243   0.970  1.00 20.00     0.036 C 
HETATM   11  C11 UNL     1       1.439  -4.819  -0.236  1.00 20.00     0.021 C 
HETATM   12  C12 UNL     1      -1.542  -4.719  -0.260  1.00 20.00     0.009 C 
HETATM   13  C13 UNL     1      -3.056  -4.884   2.252  1.00 20.00     0.137 C 
HETATM   14  C14 UNL     1      -0.716  -4.030  -1.383  1.00 20.00    -0.001 C 
HETATM   15  C15 UNL     1      -1.510  -4.832   2.375  1.00 20.00     0.169 C 
HETATM   16  C16 UNL     1      -0.766  -4.528   1.053  1.00 20.00     0.023 C 
HETATM   17  C17 UNL     1       1.412  -4.491  -2.715  1.00 20.00     0.024 C 
HETATM   18  N1  UNL     1       0.600  -4.819  -1.491  1.00 20.00     0.000 N 
HETATM   19  O1  UNL     1      -1.100  -3.821   3.360  1.00 20.00    -0.341 OA
HETATM   20  O3  UNL     1      -3.675  -4.285   3.387  1.00 20.00    -0.436 OA
HETATM   21  H18 UNL     1       0.313  -5.798  -1.630  1.00 20.00     0.000 HD
ENDROOT
BRANCH   6  22
HETATM   22  O2  UNL     1      -0.639  -1.134   4.363  1.00 20.00     0.000 OA
HETATM   23  H19 UNL     1      -0.500  -0.181   4.494  1.00 20.00     0.000 HD
ENDBRANCH   6  22
TORSDOF 1
