REMARK  0 active torsions:
REMARK  status: ('A' for Active; 'I' for Inactive)
ROOT
HETATM    1  C1  UNL     1      -0.089  -1.056  -0.240  1.00 20.00     0.208 A 
HETATM    2  C2  UNL     1      -0.919  -1.455  -1.310  1.00 20.00     0.071 A 
HETATM    3  C3  UNL     1       0.628  -2.007   0.487  1.00 20.00    -0.066 A 
HETATM    4  C4  UNL     1       0.461  -3.328   0.116  1.00 20.00    -0.008 A 
HETATM    5  C5  UNL     1      -0.292  -3.720  -0.972  1.00 20.00     0.105 A 
HETATM    6  C6  UNL     1      -1.017  -2.800  -1.694  1.00 20.00     0.068 A 
HETATM    7  C7  UNL     1       2.224  -5.375  -1.376  1.00 20.00     0.156 C 
HETATM    8  C8  UNL     1       1.632  -1.675   1.558  1.00 20.00     0.055 C 
HETATM    9  C9  UNL     1       3.568  -5.121  -0.734  1.00 20.00     0.094 C 
HETATM   10  C10 UNL     1       3.500  -3.901   0.177  1.00 20.00     0.033 C 
HETATM   11  C11 UNL     1       0.207  -4.987   1.939  1.00 20.00     0.036 C 
HETATM   12  C12 UNL     1       0.102  -3.963   3.073  1.00 20.00     0.021 C 
HETATM   13  C13 UNL     1       1.008  -5.452  -0.449  1.00 20.00     0.211 C 
HETATM   14  C14 UNL     1       2.478  -4.134   1.297  1.00 20.00     0.006 C 
HETATM   15  C15 UNL     1       2.295  -2.913   2.237  1.00 20.00    -0.002 C 
HETATM   16  C16 UNL     1       1.090  -4.510   0.764  1.00 20.00     0.027 C 
HETATM   17  C17 UNL     1       1.405  -2.458   4.587  1.00 20.00     0.024 C 
HETATM   18  N1  UNL     1       1.465  -3.420   3.430  1.00 20.00     0.000 N 
HETATM   19  O1  UNL     1       2.129  -5.577  -2.587  1.00 20.00    -0.295 OA
HETATM   20  O2  UNL     1      -0.163  -5.064  -1.232  1.00 20.00    -0.334 OA
HETATM   21  O3  UNL     1      -1.774  -3.166  -2.756  1.00 20.00    -0.409 OA
HETATM   22  H19 UNL     1       1.992  -4.224   3.797  1.00 20.00     0.000 HD
ENDROOT
TORSDOF 0
