REMARK  2 active torsions:
REMARK  status: ('A' for Active; 'I' for Inactive)
REMARK    1  A    between atoms: C5_5  and  C12_12 
REMARK    2  A    between atoms: C12_12  and  N1_14 
ROOT
HETATM    1  C7  UNL     1       0.750   0.266   1.982  1.00 20.00     0.165 C 
HETATM    2  C8  UNL     1       0.703   0.660   0.519  1.00 20.00     0.096 C 
HETATM    3  C9  UNL     1       0.293   2.117   0.378  1.00 20.00     0.029 C 
HETATM    4  C10 UNL     1      -1.002   2.414   1.129  1.00 20.00     0.025 C 
HETATM    5  C11 UNL     1      -0.884   2.012   2.603  1.00 20.00     0.070 C 
HETATM    6  C12 UNL     1      -0.526   0.516   2.804  1.00 20.00     0.197 C 
HETATM    7  O1  UNL     1       1.748  -0.280   2.454  1.00 20.00    -0.295 OA
ENDROOT
BRANCH   6   8
HETATM    8  C5  UNL     1      -1.614  -0.503   2.454  1.00 20.00    -0.017 A 
HETATM    9  C3  UNL     1      -2.825  -0.031   1.948  1.00 20.00     0.045 A 
HETATM   10  C1  UNL     1      -3.841  -0.929   1.620  1.00 20.00     0.263 A 
HETATM   11  C2  UNL     1      -3.646  -2.298   1.798  1.00 20.00     0.021 A 
HETATM   12  C4  UNL     1      -2.435  -2.770   2.304  1.00 20.00     0.057 A 
HETATM   13  C6  UNL     1      -1.419  -1.873   2.632  1.00 20.00     0.021 A 
HETATM   14 Cl1  UNL     1       0.066  -2.494   3.256  1.00 20.00    -0.088 Cl
ENDBRANCH   6   8
BRANCH   6  15
HETATM   15  N1  UNL     1      -0.181   0.385   4.272  1.00 20.00    -0.103 N 
HETATM   16  C13 UNL     1      -1.326   0.627   5.182  1.00 20.00     0.253 C 
HETATM   17  H16 UNL     1       0.197  -0.555   4.436  1.00 20.00     0.263 HD
ENDBRANCH   6  15
TORSDOF 2
