REMARK  2 active torsions:
REMARK  status: ('A' for Active; 'I' for Inactive)
REMARK    1  A    between atoms: C6_6  and  C17_17 
REMARK    2  A    between atoms: C17_17  and  N1_18 
ROOT
HETATM    1  C7  UNL     1       1.297  -4.520  -4.345  1.00 20.00     0.000 C 
HETATM    2  C8  UNL     1       0.062  -3.799  -4.875  1.00 20.00     0.003 C 
HETATM    3  C9  UNL     1       0.996  -5.302  -3.070  1.00 20.00     0.003 C 
HETATM    4  C13 UNL     1      -0.606  -2.942  -3.794  1.00 20.00     0.044 C 
HETATM    5  C14 UNL     1       0.358  -4.405  -2.008  1.00 20.00     0.044 C 
HETATM    6  C17 UNL     1      -0.956  -3.743  -2.509  1.00 20.00     0.154 C 
ENDROOT
BRANCH   6   7
HETATM    7  C6  UNL     1      -2.122  -4.736  -2.637  1.00 20.00    -0.022 A 
HETATM    8  C4  UNL     1      -3.161  -4.482  -3.533  1.00 20.00     0.010 A 
HETATM    9  C2  UNL     1      -4.218  -5.384  -3.649  1.00 20.00     0.001 A 
HETATM   10  C1  UNL     1      -4.237  -6.540  -2.869  1.00 20.00     0.000 A 
HETATM   11  C3  UNL     1      -3.199  -6.795  -1.974  1.00 20.00     0.001 A 
HETATM   12  C5  UNL     1      -2.141  -5.893  -1.858  1.00 20.00     0.010 A 
ENDBRANCH   6   7
BRANCH   6  13
HETATM   13  N1  UNL     1      -1.320  -2.708  -1.481  1.00 20.00    -0.058 N 
HETATM   14  C15 UNL     1      -2.520  -1.896  -1.908  1.00 20.00     0.236 C 
HETATM   15  C11 UNL     1      -2.768  -0.789  -0.894  1.00 20.00     0.028 C 
HETATM   16  C10 UNL     1      -2.932  -1.342   0.518  1.00 20.00     0.003 C 
HETATM   17  C12 UNL     1      -1.747  -2.220   0.908  1.00 20.00     0.028 C 
HETATM   18  C16 UNL     1      -1.503  -3.322  -0.113  1.00 20.00     0.236 C 
HETATM   19  H26 UNL     1      -0.523  -2.057  -1.415  1.00 20.00     0.281 HD
ENDBRANCH   6  13
TORSDOF 2
