REMARK  5 active torsions:
REMARK  status: ('A' for Active; 'I' for Inactive)
REMARK    1  A    between atoms: C11_6  and  C10_7 
REMARK    2  A    between atoms: C10_7  and  O3_21 
REMARK    3  A    between atoms: C7_8  and  C6_12 
REMARK    4  A    between atoms: C7_8  and  O1_22 
REMARK    5  A    between atoms: C9_15  and  O3_21 
ROOT
HETATM    1  C3  UNL     1       1.916  -0.749  -0.305  1.00 20.00     0.035 C 
HETATM    2  C4  UNL     1       0.997  -1.588   0.594  1.00 20.00     0.036 C 
HETATM    3  C17 UNL     1       0.254   0.860  -1.395  1.00 20.00     0.066 C 
HETATM    4  C6  UNL     1      -1.289  -0.581   0.068  1.00 20.00     0.146 C 
HETATM    5  C2  UNL     1       1.320   0.661  -0.306  1.00 20.00     0.191 C 
HETATM    6  C5  UNL     1      -0.108  -0.635   1.061  1.00 20.00     0.204 C 
HETATM    7  C9  UNL     1      -0.837  -0.221  -1.361  1.00 20.00     0.149 C 
HETATM    8  C1  UNL     1       1.454   1.017   2.206  1.00 20.00     0.270 C 
HETATM    9  N1  UNL     1       0.587   0.718   1.018  1.00 20.00    -0.065 N 
HETATM   10  H8  UNL     1      -0.111   1.472   0.989  1.00 20.00     0.280 HD
ENDROOT
BRANCH   7  11
HETATM   11  O3  UNL     1      -1.947   0.163  -2.164  1.00 20.00    -0.311 OA
BRANCH  11  12
HETATM   12  C10 UNL     1      -2.609  -0.849  -2.791  1.00 20.00     0.293 C 
HETATM   13  O4  UNL     1      -2.334  -2.037  -2.723  1.00 20.00    -0.259 OA
BRANCH  12  14
HETATM   14  C11 UNL     1      -3.739  -0.318  -3.594  1.00 20.00     0.039 A 
HETATM   15  C12 UNL     1      -4.549  -1.192  -4.320  1.00 20.00     0.017 A 
HETATM   16  C13 UNL     1      -5.612  -0.694  -5.074  1.00 20.00     0.001 A 
HETATM   17  C14 UNL     1      -5.864   0.678  -5.103  1.00 20.00     0.000 A 
HETATM   18  C15 UNL     1      -5.054   1.551  -4.377  1.00 20.00     0.001 A 
HETATM   19  C16 UNL     1      -3.992   1.053  -3.622  1.00 20.00     0.017 A 
ENDBRANCH  12  14
ENDBRANCH  11  12
ENDBRANCH   7  11
BRANCH   4  20
HETATM   20  C7  UNL     1      -2.347   0.356   0.584  1.00 20.00     0.267 C 
HETATM   21  O2  UNL     1      -2.766   1.324  -0.036  1.00 20.00    -0.265 OA
BRANCH  20  22
HETATM   22  O1  UNL     1      -2.746  -0.045   1.824  1.00 20.00    -0.326 OA
HETATM   23  C8  UNL     1      -3.755   0.763   2.438  1.00 20.00     0.213 C 
ENDBRANCH  20  22
ENDBRANCH   4  20
TORSDOF 5
