REMARK  2 active torsions:
REMARK  status: ('A' for Active; 'I' for Inactive)
REMARK    1  A    between atoms: C_1  and  C_7 
REMARK    2  A    between atoms: C_6  and  C_7 
ROOT
HETATM    1  C   LIG     1       1.358   0.286   0.482  1.00  0.00     0.000 C 
HETATM    2  C   LIG     1      -0.076   0.131   0.991  1.00  0.00     0.000 C 
HETATM    3  C   LIG     1       1.309   0.000  -1.016  1.00  0.00     0.005 C 
HETATM    4  C   LIG     1      -0.921  -0.222  -0.228  1.00  0.00     0.005 C 
HETATM    5  C   LIG     1       0.070  -0.873  -1.187  1.00  0.00    -0.005 C 
ENDROOT
BRANCH   5   6
HETATM    6  C   LIG     1      -0.430  -0.928  -2.620  1.00  0.00     0.117 C 
BRANCH   6   7
HETATM    7  C   LIG     1      -0.331   0.386  -3.397  1.00  0.00     0.172 C 
HETATM    8  O   LIG     1      -0.998   1.359  -2.952  1.00  0.00    -0.648 OA
HETATM    9  O   LIG     1       0.425   0.329  -4.410  1.00  0.00    -0.648 OA
ENDBRANCH   6   7
ENDBRANCH   5   6
TORSDOF 2
