REMARK  3 active torsions:
REMARK  status: ('A' for Active; 'I' for Inactive)
REMARK    1  A    between atoms: C_1  and  C_3 
REMARK    2  A    between atoms: C_2  and  C_5 
REMARK    3  A    between atoms: C_5  and  C_6 
ROOT
HETATM    1  C   LIG     1       0.867  -0.984  -3.787  1.00  0.00     0.080 C 
HETATM    2  C   LIG     1       0.042  -0.282  -2.998  1.00  0.00    -0.020 C 
ENDROOT
BRANCH   1   3
HETATM    3  C   LIG     1       1.264  -0.493  -5.187  1.00  0.00     0.198 C 
HETATM    4  O   LIG     1       0.777   0.608  -5.568  1.00  0.00    -0.645 OA
HETATM    5  O   LIG     1       2.050  -1.273  -5.802  1.00  0.00    -0.645 OA
ENDBRANCH   1   3
BRANCH   2   6
HETATM    6  C   LIG     1      -0.372  -0.732  -1.625  1.00  0.00     0.027 C 
BRANCH   6   7
HETATM    7  C   LIG     1       0.066   0.272  -0.558  1.00  0.00    -0.001 C 
HETATM    8  C   LIG     1      -0.375  -0.165   0.830  1.00  0.00     0.005 C 
ENDBRANCH   6   7
ENDBRANCH   2   6
TORSDOF 3
