REMARK  2 active torsions:
REMARK  status: ('A' for Active; 'I' for Inactive)
REMARK    1  A    between atoms: C_2  and  C_4 
REMARK    2  A    between atoms: C_5  and  C_9 
ROOT
HETATM    1  C   LIG     1      -0.285  -0.904  -3.749  1.00  0.00    -0.012 C 
HETATM    2  C   LIG     1      -0.369   0.416  -3.966  1.00  0.00     0.015 C 
HETATM    3  C   LIG     1      -0.637  -1.535  -2.429  1.00  0.00     0.036 C 
HETATM    4  C   LIG     1      -0.845   1.403  -2.944  1.00  0.00     0.046 C 
HETATM    5  C   LIG     1      -1.540   0.730  -1.754  1.00  0.00     0.014 C 
HETATM    6  C   LIG     1      -0.806  -0.530  -1.273  1.00  0.00     0.017 C 
ENDROOT
BRANCH   2   7
HETATM    7  C   LIG     1       0.011   0.914  -5.291  1.00  0.00     0.204 C 
HETATM    8  O   LIG     1       0.894   0.234  -5.885  1.00  0.00    -0.644 OA
HETATM    9  O   LIG     1      -0.595   1.957  -5.664  1.00  0.00    -0.644 OA
ENDBRANCH   2   7
BRANCH   6  10
HETATM   10  C   LIG     1       0.509  -0.185  -0.635  1.00  0.00    -0.089 C 
HETATM   11  C   LIG     1       1.652  -0.159  -1.336  1.00  0.00     0.014 C 
HETATM   12  C   LIG     1       0.471   0.129   0.831  1.00  0.00     0.043 C 
ENDBRANCH   6  10
TORSDOF 2
