REMARK  4 active torsions:
REMARK  status: ('A' for Active; 'I' for Inactive)
REMARK    1  A    between atoms: C_2  and  C_4 
REMARK    2  A    between atoms: C_3  and  C_5 
REMARK    3  A    between atoms: C_4  and  C_6 
REMARK    4  A    between atoms: C_5  and  C_6 
ROOT
HETATM    1  C   LIG     1       0.858  -0.772  -2.760  1.00  0.00     0.113 C 
ENDROOT
BRANCH   1   2
HETATM    2  C   LIG     1       0.222   0.174  -3.784  1.00  0.00     0.172 C 
HETATM    3  O   LIG     1      -0.503   1.078  -3.277  1.00  0.00    -0.648 OA
HETATM    4  O   LIG     1       0.499  -0.042  -4.996  1.00  0.00    -0.648 OA
ENDBRANCH   1   2
BRANCH   1   5
HETATM    5  C   LIG     1       1.797  -0.139  -1.738  1.00  0.00     0.014 C 
BRANCH   5   6
HETATM    6  C   LIG     1       1.090   0.909  -0.872  1.00  0.00     0.027 C 
BRANCH   6   7
HETATM    7  C   LIG     1      -0.053   0.303  -0.112  1.00  0.00    -0.037 C 
HETATM    8  C   LIG     1       0.058  -0.222   1.113  1.00  0.00     0.007 C 
ENDBRANCH   6   7
ENDBRANCH   5   6
ENDBRANCH   1   5
TORSDOF 4
