REMARK  5 active torsions:
REMARK  status: ('A' for Active; 'I' for Inactive)
REMARK    1  A    between atoms: C_1  and  C_7 
REMARK    2  A    between atoms: C_3  and  C_8 
REMARK    3  A    between atoms: C_7  and  C_9 
REMARK    4  A    between atoms: C_8  and  C_10 
REMARK    5  A    between atoms: C_9  and  C_10 
ROOT
HETATM    1  C   LIG     1       0.076   0.815  -3.505  1.00  0.00     0.008 C 
ENDROOT
BRANCH   1   2
HETATM    2  C   LIG     1      -0.481  -0.520  -3.001  1.00  0.00     0.028 C 
BRANCH   2   3
HETATM    3  C   LIG     1      -0.774  -0.462  -1.527  1.00  0.00    -0.025 C 
HETATM    4  C   LIG     1       0.090  -0.202  -0.528  1.00  0.00    -0.091 C 
HETATM    5  C   LIG     1      -0.267  -0.159   0.931  1.00  0.00     0.042 C 
HETATM    6  C   LIG     1       1.542   0.061  -0.823  1.00  0.00     0.042 C 
ENDBRANCH   2   3
ENDBRANCH   1   2
BRANCH   1   7
HETATM    7  C   LIG     1       0.459   0.793  -5.001  1.00  0.00    -0.008 C 
HETATM    8  C   LIG     1      -0.759   1.030  -5.900  1.00  0.00     0.010 C 
BRANCH   7   9
HETATM    9  C   LIG     1       1.110  -0.551  -5.369  1.00  0.00     0.117 C 
BRANCH   9  10
HETATM   10  C   LIG     1       1.972  -0.564  -6.638  1.00  0.00     0.172 C 
HETATM   11  O   LIG     1       2.557  -1.663  -6.859  1.00  0.00    -0.648 OA
HETATM   12  O   LIG     1       2.012   0.512  -7.296  1.00  0.00    -0.648 OA
ENDBRANCH   9  10
ENDBRANCH   7   9
ENDBRANCH   1   7
TORSDOF 5
