REMARK  3 active torsions:
REMARK  status: ('A' for Active; 'I' for Inactive)
REMARK    1  A    between atoms: C_2  and  C_5 
REMARK    2  A    between atoms: C_3  and  C_6 
REMARK    3  A    between atoms: C_5  and  C_6 
ROOT
HETATM    1  C   LIG     1      -0.858  -1.449  -2.382  1.00  0.00     0.021 C 
HETATM    2  C   LIG     1       0.432  -0.720  -2.754  1.00  0.00     0.086 C 
ENDROOT
BRANCH   2   3
HETATM    3  C   LIG     1      -0.002   0.386  -3.736  1.00  0.00     0.176 C 
HETATM    4  O   LIG     1      -0.771   1.273  -3.273  1.00  0.00    -0.648 OA
HETATM    5  O   LIG     1       0.469   0.264  -4.904  1.00  0.00    -0.648 OA
ENDBRANCH   2   3
BRANCH   2   6
HETATM    6  C   LIG     1       1.146  -0.208  -1.498  1.00  0.00     0.041 C 
BRANCH   6   7
HETATM    7  C   LIG     1       0.181   0.353  -0.492  1.00  0.00    -0.036 C 
HETATM    8  C   LIG     1       0.090  -0.067   0.775  1.00  0.00     0.007 C 
ENDBRANCH   6   7
ENDBRANCH   2   6
TORSDOF 3
