REMARK  3 active torsions:
REMARK  status: ('A' for Active; 'I' for Inactive)
REMARK    1  A    between atoms: C_1  and  C_4 
REMARK    2  A    between atoms: C_4  and  C_5 
REMARK    3  A    between atoms: C_5  and  C_6 
ROOT
HETATM    1  C   LIG     1      -1.121   0.499  -2.688  1.00  0.00     0.113 C 
ENDROOT
BRANCH   1   2
HETATM    2  C   LIG     1      -0.071  -0.094  -3.632  1.00  0.00     0.172 C 
HETATM    3  O   LIG     1       0.355   0.672  -4.540  1.00  0.00    -0.648 OA
HETATM    4  O   LIG     1       0.230  -1.298  -3.390  1.00  0.00    -0.648 OA
ENDBRANCH   1   2
BRANCH   1   5
HETATM    5  C   LIG     1      -1.041   0.035  -1.235  1.00  0.00     0.014 C 
BRANCH   5   6
HETATM    6  C   LIG     1       0.268   0.406  -0.509  1.00  0.00    -0.022 C 
HETATM    7  C   LIG     1       1.502  -0.194  -1.186  1.00  0.00     0.009 C 
HETATM    8  C   LIG     1       0.200  -0.061   0.947  1.00  0.00     0.009 C 
ENDBRANCH   5   6
ENDBRANCH   1   5
TORSDOF 3
