REMARK  3 active torsions:
REMARK  status: ('A' for Active; 'I' for Inactive)
REMARK    1  A    between atoms: C_2  and  C_6 
REMARK    2  A    between atoms: C_3  and  C_7 
REMARK    3  A    between atoms: C_6  and  C_7 
ROOT
HETATM    1  C   LIG     1      -0.494   1.770  -3.323  1.00  0.00     0.026 C 
HETATM    2  C   LIG     1      -1.668  -0.077  -2.117  1.00  0.00     0.026 C 
HETATM    3  C   LIG     1      -0.292   0.479  -2.512  1.00  0.00     0.044 C 
ENDROOT
BRANCH   3   4
HETATM    4  C   LIG     1       0.462  -0.460  -3.501  1.00  0.00     0.181 C 
HETATM    5  O   LIG     1       0.757  -1.605  -3.049  1.00  0.00    -0.647 OA
HETATM    6  O   LIG     1       0.708   0.024  -4.642  1.00  0.00    -0.647 OA
ENDBRANCH   3   4
BRANCH   3   7
HETATM    7  C   LIG     1       0.558   0.796  -1.259  1.00  0.00     0.046 C 
BRANCH   7   8
HETATM    8  C   LIG     1       0.553  -0.291  -0.219  1.00  0.00    -0.036 C 
HETATM    9  C   LIG     1       0.070  -0.138   1.019  1.00  0.00     0.007 C 
ENDBRANCH   7   8
ENDBRANCH   3   7
TORSDOF 3
