REMARK  2 active torsions:
REMARK  status: ('A' for Active; 'I' for Inactive)
REMARK    1  A    between atoms: C10_10  and  C12_12 
REMARK    2  A    between atoms: C12_12  and  N13_13 
ROOT
HETATM    1  C1  UNL     1       0.871   0.656  -0.113  1.00 20.00     0.009 C 
HETATM    2  C2  UNL     1       2.091   2.643   0.811  1.00 20.00     0.009 C 
HETATM    3  C3  UNL     1       2.106   2.199  -1.657  1.00 20.00     0.009 C 
HETATM    4  C4  UNL     1      -0.417   2.602   0.806  1.00 20.00     0.016 C 
HETATM    5  C5  UNL     1      -0.402   2.157  -1.668  1.00 20.00     0.016 C 
HETATM    6  C6  UNL     1       0.820   4.148  -0.742  1.00 20.00     0.016 C 
HETATM    7  C7  UNL     1       0.852   1.747   0.971  1.00 20.00    -0.013 C 
HETATM    8  C8  UNL     1       0.867   1.300  -1.509  1.00 20.00    -0.013 C 
HETATM    9  C9  UNL     1       2.092   3.297  -0.581  1.00 20.00    -0.013 C 
HETATM   10  C10 UNL     1      -0.442   3.267  -0.591  1.00 20.00    -0.012 C 
ENDROOT
BRANCH  10  11
HETATM   11  C12 UNL     1      -1.705   4.117  -0.752  1.00 20.00     0.188 C 
HETATM   12  C11 UNL     1      -2.966   3.307  -0.517  1.00 20.00     0.040 C 
BRANCH  11  13
HETATM   13  N13 UNL     1      -1.650   5.218   0.243  1.00 20.00    -0.075 N 
HETATM   14  H33 UNL     1      -0.822   5.130   0.840  1.00 20.00     0.274 HD
HETATM   15  H34 UNL     1      -2.479   5.207   0.846  1.00 20.00     0.274 HD
HETATM   16  H35 UNL     1      -1.609   6.130  -0.224  1.00 20.00     0.274 HD
ENDBRANCH  11  13
ENDBRANCH  10  11
TORSDOF 2
